/*--------------------------------*- C++ -*----------------------------------*\
  =========                 |
  \\      /  F ield         | OpenFOAM: The Open Source CFD Toolbox
   \\    /   O peration     | Website:  https://openfoam.org
    \\  /    A nd           | Version:  9
     \\/     M anipulation  |
\*---------------------------------------------------------------------------*/
FoamFile
{
    version     2.0;
    format      ascii;
    class       dictionary;
    object      blockMeshDict;
}
// * * * * * * * * * * * * * * * * * * * * * * * * * * * * * * * * * * * * * //

scale 1;

vertices
(
    (-0.5 0.0 -0.205)
    ( 0.5 0.0 -0.205)
    ( 0.5 0.1 -0.205)
    (-0.5 0.1 -0.205)
    (-0.5 0.0 0.295)
    ( 0.5 0.0 0.295)
    ( 0.5 0.1 0.295)
    (-0.5 0.1 0.295)
);

blocks
(
    hex (0 1 2 3 4 5 6 7) (64 1 32) simpleGrading (1 1 1)
);

edges
(
);

boundary
(
    stationaryWalls
    {
        type wall;
        faces
        (
            (0 3 2 1)
            (2 6 5 1)
            (0 4 7 3)
        );
    }
    front
    {
        type wall;
        faces
        (
            (1 5 4 0)
        );
    }
    back
    {
        type wall;
        faces
        (
            (3 7 6 2)
        );
    }
    atmosphere
    {
        type patch;
        faces
        (
            (4 5 6 7)
        );
    }
    floatingObject
    {
        type wall;
        faces ();
    }
);
