/*--------------------------------*- C++ -*----------------------------------*\
  =========                 |
  \\      /  F ield         | OpenFOAM: The Open Source CFD Toolbox
   \\    /   O peration     | Website:  https://openfoam.org
    \\  /    A nd           | Version:  9
     \\/     M anipulation  |
\*---------------------------------------------------------------------------*/
FoamFile
{
    format      ascii;
    class       dictionary;
    object      motionProperties;
}
// * * * * * * * * * * * * * * * * * * * * * * * * * * * * * * * * * * * * * //

dynamicFvMesh   dynamicMotionSolverFvMesh;

motionSolverLibs   ("librigidBodyMeshMotion.so");

motionSolver       rigidBodyMotion;

rigidBodyMotionCoeffs
{
    report          on;

    solver
    {
        type Newmark;
    }

    accelerationRelaxation 0.7;

    bodies
    {
        floatingObject
        {
            type            cuboid;
            parent          root;

            // Cuboid dimensions
            Lx              1;
            Ly              1;
            Lz              1;

            // Density of the cuboid
            rho             500;

            // Cuboid mass
            mass            #calc "$rho*$Lx*$Ly*$Lz*3.14*0.25";
            L               ($Lx $Ly $Lz);
            centreOfMass    (0 0 0);
            transform       (1 0 0 0 1 0 0 0 1) (0 0 0);

            joint
            {
                type            composite;
                joints
                (
                    {
                        type Pz;
                    }
                );
            }

            patches         (floatingObject);
            innerDistance   0.05;
            outerDistance   2;
        }
    }
}


// ************************************************************************* //
